LTspice 26.0.1 for Windows
Circuit: C:\Users\shifa\OneDrive\Desktop\CSE260_P\4bitSch.net
Start Time: Sat Apr 18 23:05:25 2026
solver = Normal
Maximum thread count: 12
tnom = 27
temp = 27
method = trap
Compress1stOrder = true
Compress2ndOrder = true
Direct Newton iteration succeeded in finding operating point.
Total elapsed time: 0.363 seconds.

Files loaded:
C:\Users\shifa\OneDrive\Desktop\CSE260_P\4bitSch.net

