LTspice 26.0.1 for Windows
Circuit: C:\Users\shifa\OneDrive\Desktop\CSE260_P\EqualANDGreater.net
Start Time: Wed Apr 15 18:56:03 2026
solver = Normal
Maximum thread count: 12
tnom = 27
temp = 27
method = trap
Compress1stOrder = true
Compress2ndOrder = true
Direct Newton iteration succeeded in finding operating point.
Total elapsed time: 0.265 seconds.

Files loaded:
C:\Users\shifa\OneDrive\Desktop\CSE260_P\EqualANDGreater.net

